/*--------------------------------*- C++ -*----------------------------------*\
| =========                 |                                                 |
| \\      /  F ield         | OpenFOAM: The Open Source CFD Toolbox           |
|  \\    /   O peration     | Version:  3.0.0                                 |
|   \\  /    A nd           | Web:      www.OpenFOAM.org                      |
|    \\/     M anipulation  |                                                 |
\*---------------------------------------------------------------------------*/
FoamFile
{
    version     2.0;
    format      ascii;
    class       dictionary;
    object      blockMeshDict;
}
// * * * * * * * * * * * * * * * * * * * * * * * * * * * * * * * * * * * * * //

convertToMeters 0.1;

vertices
(
    (0 0) 	
    (1 0) 	
    (1 1) 	 
    (0 1) 	 
    (0 0) 	 
    (1 0) 	 
    (1 1) 	 
    (0 1) 	 
);

blocks
(
    hex (0 1 2 3) (20 20) simpleGrading (1 1)
    hex (8 7 6 5) (20 20) simpleGrading (1 1) 
);

edges  
(	    
    spline 4 5 
        ( 
            (-0.249985 0.000700) 
            (-0.249938 0.001398) 
            (-0.249861 0.002093) 
            (-0.249752 0.002786) 
        ) 
    spline 5 6 
        ( 
            (-0.249985 0.000700) 
            (-0.249938 0.001398) 
            (-0.249861 0.002093) 
            (-0.249752 0.002786) 
        )
    arc 0  1  (4 3)    
    arc 1  3  (9 12)    
    arc 2  3  (-3 4)     
    arc 3  4  (-4 3)    
    arc 8  3  (12 9)    
    arc 9  10  (9 12)    
    
);

boundary
(
    movingWall
    {
        type wall;
        faces
        (
            (3 7)
        );
    }
    fixedWalls
    {
        type wall;
        faces
        (
            (0 4)
            (2 6)
            (1 5)
        );
    }
    frontAndBack
    {
        type empty;
        faces
        (
            (0 3)
            (4 5)
        );
    }
);

mergePatchPairs
(
);

// ************************************************************************* //
