/*--------------------------------*- C++ -*----------------------------------*\
| =========                 |                                                 |
| \\      /  F ield         | OpenFOAM: The Open Source CFD Toolbox           |
|  \\    /   O peration     | Version:  3.0.0                                 |
|   \\  /    A nd           | Web:      www.OpenFOAM.org                      |
|    \\/     M anipulation  |                                                 |
\*---------------------------------------------------------------------------*/
FoamFile
{
    version     2.0;
    format      ascii;
    class       dictionary;
    object      blockMeshDict;
}
// * * * * * * * * * * * * * * * * * * * * * * * * * * * * * * * * * * * * * //

convertToMeters 0.1;

vertices
(
    (0 0) 	 // Number: 0 	 // Number: 0
    (1 0) 	 // Number: 1 	 // Number: 1
    (1 1) 	 // Number: 2 	 // Number: 2
    (0 1) 	 // Number: 3 	 // Number: 3
    (0 0) 	 // Number: 4 	 // Number: 4
    (1 0) 	 // Number: 5 	 // Number: 5
    (1 1) 	 // Number: 6 	 // Number: 6
    (0 1) 	 // Number: 7 	 // Number: 7
);

blocks
(
    hex (0 1 2 3) (20 20 1) simpleGrading (1 1 1)
    hex (8 7 6 5) (20 20 1) simpleGrading (1 1 1)
);

edges
(
);

boundary
(
    movingWall
    {
        type wall;
        faces
        (
            (3 7 6 2)
        );
    }
    fixedWalls
    {
        type wall;
        faces
        (
            (0 4 7 3)
            (2 6 5 1)
            (1 5 4 0)
        );
    }
    frontAndBack
    {
        type empty;
        faces
        (
            (0 3 2 1)
            (4 5 6 7)
        );
    }
);

mergePatchPairs
(
);

// ************************************************************************* //
