/*--------------------------------*- C++ -*----------------------------------*\
| =========                 |                                                 |
| \\      /  F ield         | OpenFOAM: The Open Source CFD Toolbox           |
|  \\    /   O peration     | Version:  2.1.0                                 |
|   \\  /    A nd           | Web:      www.OpenFOAM.org                      |
|    \\/     M anipulation  |                                                 |
\*---------------------------------------------------------------------------*/
FoamFile
{
    version     2.0;
    format      ascii;
    class       dictionary;
    object      blockMeshDict;
}
// * * * * * * * * * * * * * * * * * * * * * * * * * * * * * * * * * * * * * //

convertToMeters 1;

vertices
(
    (0.5 0)
    (1 0)
    (2 0)
    (2 0.707107)
    (0.707107 0.707107)
    (0.353553 0.353553)
    (2 2)
    (0.707107 2)
    (0 2)
    (0 1)
    (0 0.5)
    (-0.5 0)
    (-1 0)
    (-2 0)
    (-2 0.707107)
    (-0.707107 0.707107)
    (-0.353553 0.353553)
    (-2 2)
    (-0.707107 2)
);

blocks
(
    hex (5 4 9 10) (10 10) simpleGrading (1 1)
    hex (0 1 4 5) (10 10) simpleGrading (1 1)
    hex (1 2 3 4) (20 10) simpleGrading (1 1)
    hex (4 3 6 7) (20 20) simpleGrading (1 1)
    hex (9 4 7 8) (10 20) simpleGrading (1 1)
    hex (15 16 10 9) (10 10) simpleGrading (1 1)
    hex (12 11 16 15) (10 10) simpleGrading (1 1)
    hex (13 12 15 14) (20 10) simpleGrading (1 1)
    hex (14 15 18 17) (20 20) simpleGrading (1 1)
    hex (15 9 8 18) (10 20) simpleGrading (1 1)
);

edges
(
    arc 0 5 (0.469846 0.17101)
    arc 5 10 (0.17101 0.469846)
    arc 1 4 (0.939693 0.34202)
    arc 4 9 (0.34202 0.939693)
    arc 11 16 (-0.469846 0.17101)
    arc 16 10 (-0.17101 0.469846)
    arc 12 15 (-0.939693 0.34202)
);

defaultPatch
{
}


boundary
(
    bottom
    {
        type wall;
        faces
        (
            (0 1)
            (1 2)
            (12 11)
            (13 12)
            (10 5)
            (5 0)
            (16 10)
            (11 16)
        );
    }
    outlet
    {
        type patch;
        faces
        (
            (2 3)
            (3 6)
        );
    }
    top
    {
        type patch;
        faces
        (
            (7 8)
            (6 7)
            (8 18)
            (18 17) 
        );
    }
    inlet
    {
        type patch;
        faces
        ( 
            (14 13)
            (17 14)
        );
    }
);

mergePatchPairs
(
);

// ************************************************************************* //
